Circuit: * C:\Users\ahmeds7\Documents\Electric Circuits\Lab 1\Draft1.asc

Direct Newton iteration for .op point succeeded.

Date: Wed Jan 22 17:43:15 2020
Total elapsed time: 0.101 seconds.

tnom = 27
temp = 27
method = trap
totiter = 3
traniter = 0
tranpoints = 0
accept = 0
rejected = 0
matrix size = 3
fillins = 0
solver = Normal
Matrix Compiler1: 50 bytes object code size
Matrix Compiler2: 175 bytes object code size
