Circuit: * C:\Users\ahmeds7\Documents\Electric Circuits\Lab 2\Draft5.asc

Direct Newton iteration for .op point succeeded.

Date: Tue Apr 28 20:21:58 2020
Total elapsed time: 0.184 seconds.

tnom = 27
temp = 27
method = modified trap
totiter = 37089
traniter = 37081
tranpoints = 10247
accept = 7216
rejected = 3031
matrix size = 21
fillins = 0
solver = Normal
Matrix Compiler1: 942 bytes object code size  0.1/0.1/[0.1]
Matrix Compiler2: 1.32 KB object code size  0.1/0.2/[0.1]

