Circuit: * C:\Users\ahmeds7\Documents\Electric Circuits\Lab 2\Draft4.asc

Direct Newton iteration failed to find .op point.  (Use ".option noopiter" to skip.)
Starting Gmin stepping
Gmin = 10
Gmin = 1.07374
Gmin = 0.115292
Gmin = 0.0123794
Gmin = 0.00132923
Gmin = 0.000142725
vernier = 0.5
vernier = 0.25
vernier = 0.125
vernier = 0.0625
Gmin = 4.67681e-05
vernier = 0.03125
vernier = 0.015625
vernier = 0.0078125
vernier = 0.00390625
vernier = 0.00195313
vernier = 0.000976563
vernier = 0.000488281
Gmin = 0
Gmin stepping failed

Starting source stepping with srcstepmethod=0
Source Step = 3.0303%
Source Step = 12.1271%
Starting source stepping with srcstepmethod=1
Source Step = 3.0303%
vernier = 0.25
Source stepping failed

Pseudo Transient succeeded in finding the operating point at 335.544 ms.

Date: Tue Apr 28 19:02:31 2020
Total elapsed time: 0.516 seconds.

tnom = 27
temp = 27
method = modified trap
totiter = 9397
traniter = 1541
tranpoints = 412
accept = 322
rejected = 90
matrix size = 43
fillins = 2
solver = Normal
Matrix Compiler1: 1.72 KB object code size  0.6/0.3/[0.1]
Matrix Compiler2: 3.21 KB object code size  1.2/1.5/[1.1]

