Circuit: * C:\Users\ahmeds7\Documents\Electric Circuits\Lab 2\Draft3.asc

Direct Newton iteration for .op point succeeded.

Date: Fri May  1 19:40:52 2020
Total elapsed time: 0.043 seconds.

tnom = 27
temp = 27
method = modified trap
totiter = 2232
traniter = 2229
tranpoints = 1115
accept = 775
rejected = 340
matrix size = 9
fillins = 1
solver = Normal
Matrix Compiler1: 386 bytes object code size  0.1/0.1/[0.0]
Matrix Compiler2:      58 opcodes  0.1/[0.0]/0.1

