Circuit: * C:\Users\ahmeds7\Documents\Electric Circuits\Lab 2\LTSpiceOmegaLab3.asc

Direct Newton iteration failed to find .op point.  (Use ".option noopiter" to skip.)
Starting Gmin stepping
Gmin = 10
Gmin = 1.07374
Gmin = 0.115292
Gmin = 0.0123794
Gmin = 0.00132923
Gmin = 0.000142725
vernier = 0.5
vernier = 0.25
vernier = 0.125
vernier = 0.0625
Gmin = 4.67681e-05
vernier = 0.03125
vernier = 0.015625
vernier = 0.0078125
vernier = 0.00390625
vernier = 0.00195313
vernier = 0.000976563
vernier = 0.000488281
Gmin = 0
Gmin stepping failed

Starting source stepping with srcstepmethod=0
Source Step = 3.0303%
Source Step = 12.1271%
Starting source stepping with srcstepmethod=1
Source Step = 3.0303%
vernier = 0.25
Source stepping failed

Pseudo Transient succeeded in finding the operating point at 1.81064 s.

Date: Mon May  4 18:56:08 2020
Total elapsed time: 0.462 seconds.

tnom = 27
temp = 27
method = modified trap
totiter = 46085
traniter = 38217
tranpoints = 19043
accept = 15509
rejected = 3535
matrix size = 45
fillins = 2
solver = Normal
Matrix Compiler1: 1.78 KB object code size  0.5/0.3/[0.1]
Matrix Compiler2: off  [0.4]/0.5/0.4

