Circuit: * C:\Users\ahmeds7\Documents\Intro to Electronics\lab5\Draft1.asc

Direct Newton iteration for .op point succeeded.

Date: Wed Aug 12 20:46:48 2020
Total elapsed time: 0.110 seconds.

tnom = 27
temp = 27
method = modified trap
totiter = 836
traniter = 830
tranpoints = 416
accept = 258
rejected = 158
matrix size = 13
fillins = 0
solver = Normal
Matrix Compiler1: 460 bytes object code size  0.3/0.2/[0.1]
Matrix Compiler2: 959 bytes object code size  0.3/0.4/[0.2]

