Circuit: * C:\Users\ahmeds7\Documents\Intro to Electronics\lab 2\Draft2.asc

Direct Newton iteration for .op point succeeded.

Date: Mon Jul 06 17:42:50 2020
Total elapsed time: 0.501 seconds.

tnom = 27
temp = 27
method = modified trap
totiter = 2088
traniter = 2082
tranpoints = 1042
accept = 1042
rejected = 0
matrix size = 6
fillins = 0
solver = Normal
Matrix Compiler1: 146 bytes object code size  0.1/0.2/[0.1]
Matrix Compiler2: 360 bytes object code size  0.2/0.2/[0.2]

