Circuit: * C:\Users\ahmeds7\Downloads\Draft1.asc

.OP point found by inspection.

Date: Sun Jul 05 18:06:04 2020
Total elapsed time: 0.241 seconds.

tnom = 27
temp = 27
method = modified trap
totiter = 29607
traniter = 29607
tranpoints = 9662
accept = 6355
rejected = 3307
matrix size = 3
fillins = 0
solver = Normal
Matrix Compiler1: 50 bytes object code size  0.1/0.0/[0.0]
Matrix Compiler2: off  [0.1]/0.1/0.1

