Circuit: * C:\Users\ahmeds7\Documents\Intro to Electronics\lab 2\Draft3.asc

Direct Newton iteration for .op point succeeded.

Date: Fri Jul 24 21:00:26 2020
Total elapsed time: 0.078 seconds.

tnom = 27
temp = 27
method = trap
totiter = 4
traniter = 0
tranpoints = 0
accept = 0
rejected = 0
matrix size = 9
fillins = 0
solver = Normal
Matrix Compiler1:      23 opcodes
Matrix Compiler2: 667 bytes object code size
