Circuit: * C:\Users\ahmeds7\Documents\Intro to Electronics\lab4\Draft6.asc

Direct Newton iteration for .op point succeeded.

Date: Wed Aug 05 19:08:47 2020
Total elapsed time: 0.090 seconds.

tnom = 27
temp = 27
method = trap
totiter = 3
traniter = 0
tranpoints = 0
accept = 0
rejected = 0
matrix size = 11
fillins = 0
solver = Normal
Matrix Compiler1:      33 opcodes
Matrix Compiler2: 847 bytes object code size
